<routes>
<flow id="1to2" begin="0" end="2000" probability="0.004931" from="e10" to="dst2" departSpeed="10" maxSpeed="20"/>
<flow id="1to4" begin="0" end="2000" probability="0.001458" from="e10" to="dst4" departSpeed="10" maxSpeed="20"/>
<flow id="1to7" begin="0" end="2000" probability="0.025903" from="e10" to="dst7" departSpeed="10" maxSpeed="20"/>
<flow id="1to8" begin="0" end="2000" probability="0.000972" from="e10" to="dst8" departSpeed="10" maxSpeed="20"/>
<flow id="1to10" begin="0" end="2000" probability="0.011667" from="e10" to="dst10" departSpeed="10" maxSpeed="20"/>
<flow id="1to13" begin="0" end="2000" probability="0.000069" from="e10" to="dst13" departSpeed="10" maxSpeed="20"/>
<flow id="1to16" begin="0" end="2000" probability="0.011111" from="e10" to="dst16" departSpeed="10" maxSpeed="20"/>
<flow id="1to17" begin="0" end="2000" probability="0.000139" from="e10" to="dst17" departSpeed="10" maxSpeed="20"/>
<flow id="1to19" begin="0" end="2000" probability="0.000069" from="e10" to="dst19" departSpeed="10" maxSpeed="20"/>
<flow id="1to20" begin="0" end="2000" probability="0.000069" from="e10" to="dst20" departSpeed="10" maxSpeed="20"/>
<flow id="1to21" begin="0" end="2000" probability="0.004375" from="e10" to="dst21" departSpeed="10" maxSpeed="20"/>
<flow id="1to22" begin="0" end="2000" probability="0.000903" from="e10" to="dst22" departSpeed="10" maxSpeed="20"/>
<flow id="4to1" begin="0" end="2000" probability="0.002083" from="e40" to="dst1" departSpeed="7" maxSpeed="20"/>
<flow id="4to2" begin="0" end="2000" probability="0.001944" from="e40" to="dst2" departSpeed="7" maxSpeed="20"/>
<flow id="4to7" begin="0" end="2000" probability="0.003889" from="e40" to="dst7" departSpeed="7" maxSpeed="20"/>
<flow id="4to8" begin="0" end="2000" probability="0.000556" from="e40" to="dst8" departSpeed="7" maxSpeed="20"/>
<flow id="4to10" begin="0" end="2000" probability="0.001597" from="e40" to="dst10" departSpeed="7" maxSpeed="20"/>
<flow id="4to13" begin="0" end="2000" probability="0.000069" from="e40" to="dst13" departSpeed="7" maxSpeed="20"/>
<flow id="4to16" begin="0" end="2000" probability="0.001944" from="e40" to="dst16" departSpeed="7" maxSpeed="20"/>
<flow id="4to17" begin="0" end="2000" probability="0.000139" from="e40" to="dst17" departSpeed="7" maxSpeed="20"/>
<flow id="4to20" begin="0" end="2000" probability="0.000139" from="e40" to="dst20" departSpeed="7" maxSpeed="20"/>
<flow id="4to21" begin="0" end="2000" probability="0.000764" from="e40" to="dst21" departSpeed="7" maxSpeed="20"/>
<flow id="4to22" begin="0" end="2000" probability="0.000069" from="e40" to="dst22" departSpeed="7" maxSpeed="20"/>
<flow id="5to1" begin="0" end="2000" probability="0.005764" from="e50" to="dst1" departSpeed="8" maxSpeed="20"/>
<flow id="5to4" begin="0" end="2000" probability="0.000625" from="e50" to="dst4" departSpeed="8" maxSpeed="20"/>
<flow id="7to8" begin="0" end="2000" probability="0.000417" from="e70" to="dst8" departSpeed="6" maxSpeed="20"/>
<flow id="7to10" begin="0" end="2000" probability="0.003056" from="e70" to="dst10" departSpeed="6" maxSpeed="20"/>
<flow id="7to16" begin="0" end="2000" probability="0.003403" from="e70" to="dst16" departSpeed="6" maxSpeed="20"/>
<flow id="7to17" begin="0" end="2000" probability="0.000208" from="e70" to="dst17" departSpeed="6" maxSpeed="20"/>
<flow id="7to19" begin="0" end="2000" probability="0.000069" from="e70" to="dst19" departSpeed="6" maxSpeed="20"/>
<flow id="7to21" begin="0" end="2000" probability="0.001319" from="e70" to="dst21" departSpeed="6" maxSpeed="20"/>
<flow id="7to22" begin="0" end="2000" probability="0.000278" from="e70" to="dst22" departSpeed="6" maxSpeed="20"/>
<flow id="8to1" begin="0" end="2000" probability="0.005833" from="e80" to="dst1" departSpeed="6" maxSpeed="20"/>
<flow id="8to2" begin="0" end="2000" probability="0.001736" from="e80" to="dst2" departSpeed="6" maxSpeed="20"/>
<flow id="8to4" begin="0" end="2000" probability="0.000694" from="e80" to="dst4" departSpeed="6" maxSpeed="20"/>
<flow id="8to10" begin="0" end="2000" probability="0.001528" from="e80" to="dst10" departSpeed="6" maxSpeed="20"/>
<flow id="8to16" begin="0" end="2000" probability="0.000903" from="e80" to="dst16" departSpeed="6" maxSpeed="20"/>
<flow id="8to17" begin="0" end="2000" probability="0.000069" from="e80" to="dst17" departSpeed="6" maxSpeed="20"/>
<flow id="8to21" begin="0" end="2000" probability="0.000347" from="e80" to="dst21" departSpeed="6" maxSpeed="20"/>
<flow id="8to22" begin="0" end="2000" probability="0.000139" from="e80" to="dst22" departSpeed="6" maxSpeed="20"/>
<flow id="10to1" begin="0" end="2000" probability="0.000347" from="e100" to="dst1" departSpeed="5" maxSpeed="20"/>
<flow id="10to2" begin="0" end="2000" probability="0.000139" from="e100" to="dst2" departSpeed="5" maxSpeed="20"/>
<flow id="10to5" begin="0" end="2000" probability="0.000278" from="e100" to="dst5" departSpeed="5" maxSpeed="20"/>
<flow id="10to8" begin="0" end="2000" probability="0.000764" from="e100" to="dst8" departSpeed="5" maxSpeed="20"/>
<flow id="10to13" begin="0" end="2000" probability="0.000139" from="e100" to="dst13" departSpeed="5" maxSpeed="20"/>
<flow id="10to16" begin="0" end="2000" probability="0.008681" from="e100" to="dst16" departSpeed="5" maxSpeed="20"/>
<flow id="10to17" begin="0" end="2000" probability="0.000347" from="e100" to="dst17" departSpeed="5" maxSpeed="20"/>
<flow id="10to20" begin="0" end="2000" probability="0.000139" from="e100" to="dst20" departSpeed="5" maxSpeed="20"/>
<flow id="10to21" begin="0" end="2000" probability="0.003819" from="e100" to="dst21" departSpeed="5" maxSpeed="20"/>
<flow id="10to22" begin="0" end="2000" probability="0.000764" from="e100" to="dst22" departSpeed="5" maxSpeed="20"/>
<flow id="11to1" begin="0" end="2000" probability="0.023819" from="e110" to="dst1" departSpeed="7" maxSpeed="20"/>
<flow id="11to2" begin="0" end="2000" probability="0.001806" from="e110" to="dst2" departSpeed="7" maxSpeed="20"/>
<flow id="11to4" begin="0" end="2000" probability="0.000625" from="e110" to="dst4" departSpeed="7" maxSpeed="20"/>
<flow id="11to5" begin="0" end="2000" probability="0.005486" from="e110" to="dst5" departSpeed="7" maxSpeed="20"/>
<flow id="11to10" begin="0" end="2000" probability="0.000833" from="e110" to="dst10" departSpeed="7" maxSpeed="20"/>
<flow id="11to13" begin="0" end="2000" probability="0.012500" from="e110" to="dst13" departSpeed="7" maxSpeed="20"/>
<flow id="13to11" begin="0" end="2000" probability="0.022431" from="e130" to="dst11" departSpeed="9" maxSpeed="20"/>
<flow id="13to16" begin="0" end="2000" probability="0.010486" from="e130" to="dst16" departSpeed="9" maxSpeed="20"/>
<flow id="13to17" begin="0" end="2000" probability="0.001042" from="e130" to="dst17" departSpeed="9" maxSpeed="20"/>
<flow id="13to19" begin="0" end="2000" probability="0.000139" from="e130" to="dst19" departSpeed="9" maxSpeed="20"/>
<flow id="13to20" begin="0" end="2000" probability="0.000069" from="e130" to="dst20" departSpeed="9" maxSpeed="20"/>
<flow id="13to21" begin="0" end="2000" probability="0.005347" from="e130" to="dst21" departSpeed="9" maxSpeed="20"/>
<flow id="13to22" begin="0" end="2000" probability="0.000625" from="e130" to="dst22" departSpeed="9" maxSpeed="20"/>
<flow id="14to1" begin="0" end="2000" probability="0.008681" from="e140" to="dst1" departSpeed="8" maxSpeed="20"/>
<flow id="14to2" begin="0" end="2000" probability="0.001181" from="e140" to="dst2" departSpeed="8" maxSpeed="20"/>
<flow id="14to4" begin="0" end="2000" probability="0.000208" from="e140" to="dst4" departSpeed="8" maxSpeed="20"/>
<flow id="14to5" begin="0" end="2000" probability="0.001250" from="e140" to="dst5" departSpeed="8" maxSpeed="20"/>
<flow id="14to10" begin="0" end="2000" probability="0.000764" from="e140" to="dst10" departSpeed="8" maxSpeed="20"/>
<flow id="14to11" begin="0" end="2000" probability="0.002292" from="e140" to="dst11" departSpeed="8" maxSpeed="20"/>
<flow id="14to16" begin="0" end="2000" probability="0.007569" from="e140" to="dst16" departSpeed="8" maxSpeed="20"/>
<flow id="16to17" begin="0" end="2000" probability="0.002708" from="e160" to="dst17" departSpeed="6" maxSpeed="20"/>
<flow id="16to20" begin="0" end="2000" probability="0.000694" from="e160" to="dst20" departSpeed="6" maxSpeed="20"/>
<flow id="16to21" begin="0" end="2000" probability="0.016597" from="e160" to="dst21" departSpeed="6" maxSpeed="20"/>
<flow id="16to22" begin="0" end="2000" probability="0.003611" from="e160" to="dst22" departSpeed="6" maxSpeed="20"/>
<flow id="17to1" begin="0" end="2000" probability="0.004028" from="e170" to="dst1" departSpeed="10" maxSpeed="20"/>
<flow id="17to2" begin="0" end="2000" probability="0.000278" from="e170" to="dst2" departSpeed="10" maxSpeed="20"/>
<flow id="17to4" begin="0" end="2000" probability="0.000069" from="e170" to="dst4" departSpeed="10" maxSpeed="20"/>
<flow id="17to5" begin="0" end="2000" probability="0.000486" from="e170" to="dst5" departSpeed="10" maxSpeed="20"/>
<flow id="17to10" begin="0" end="2000" probability="0.000139" from="e170" to="dst10" departSpeed="10" maxSpeed="20"/>
<flow id="17to11" begin="0" end="2000" probability="0.004653" from="e170" to="dst11" departSpeed="10" maxSpeed="20"/>
<flow id="17to14" begin="0" end="2000" probability="0.000694" from="e170" to="dst14" departSpeed="10" maxSpeed="20"/>
<flow id="17to19" begin="0" end="2000" probability="0.033611" from="e170" to="dst19" departSpeed="10" maxSpeed="20"/>
<flow id="17to20" begin="0" end="2000" probability="0.000069" from="e170" to="dst20" departSpeed="10" maxSpeed="20"/>
<flow id="17to21" begin="0" end="2000" probability="0.012778" from="e170" to="dst21" departSpeed="10" maxSpeed="20"/>
<flow id="17to22" begin="0" end="2000" probability="0.004444" from="e170" to="dst22" departSpeed="10" maxSpeed="20"/>
<flow id="19to1" begin="0" end="2000" probability="0.004722" from="e190" to="dst1" departSpeed="7" maxSpeed="20"/>
<flow id="19to2" begin="0" end="2000" probability="0.000417" from="e190" to="dst2" departSpeed="7" maxSpeed="20"/>
<flow id="19to10" begin="0" end="2000" probability="0.000208" from="e190" to="dst10" departSpeed="7" maxSpeed="20"/>
<flow id="19to11" begin="0" end="2000" probability="0.005486" from="e190" to="dst11" departSpeed="7" maxSpeed="20"/>
<flow id="19to14" begin="0" end="2000" probability="0.004444" from="e190" to="dst14" departSpeed="7" maxSpeed="20"/>
<flow id="19to17" begin="0" end="2000" probability="0.035486" from="e190" to="dst17" departSpeed="7" maxSpeed="20"/>
<flow id="19to20" begin="0" end="2000" probability="0.006389" from="e190" to="dst20" departSpeed="7" maxSpeed="20"/>
<flow id="19to21" begin="0" end="2000" probability="0.029236" from="e190" to="dst21" departSpeed="7" maxSpeed="20"/>
<flow id="20to1" begin="0" end="2000" probability="0.002292" from="e200" to="dst1" departSpeed="6" maxSpeed="20"/>
<flow id="20to2" begin="0" end="2000" probability="0.000208" from="e200" to="dst2" departSpeed="6" maxSpeed="20"/>
<flow id="20to4" begin="0" end="2000" probability="0.000069" from="e200" to="dst4" departSpeed="6" maxSpeed="20"/>
<flow id="20to5" begin="0" end="2000" probability="0.000139" from="e200" to="dst5" departSpeed="6" maxSpeed="20"/>
<flow id="20to11" begin="0" end="2000" probability="0.003194" from="e200" to="dst11" departSpeed="6" maxSpeed="20"/>
<flow id="20to14" begin="0" end="2000" probability="0.003958" from="e200" to="dst14" departSpeed="6" maxSpeed="20"/>
<flow id="20to19" begin="0" end="2000" probability="0.006389" from="e200" to="dst19" departSpeed="6" maxSpeed="20"/>
<flow id="20to21" begin="0" end="2000" probability="0.000278" from="e200" to="dst21" departSpeed="6" maxSpeed="20"/>
<flow id="20to22" begin="0" end="2000" probability="0.020000" from="e200" to="dst22" departSpeed="6" maxSpeed="20"/>
<flow id="21to1" begin="0" end="2000" probability="0.007778" from="e210" to="dst1" departSpeed="13" maxSpeed="20"/>
<flow id="21to2" begin="0" end="2000" probability="0.000347" from="e210" to="dst2" departSpeed="13" maxSpeed="20"/>
<flow id="21to4" begin="0" end="2000" probability="0.000069" from="e210" to="dst4" departSpeed="13" maxSpeed="20"/>
<flow id="21to5" begin="0" end="2000" probability="0.000347" from="e210" to="dst5" departSpeed="13" maxSpeed="20"/>
<flow id="21to10" begin="0" end="2000" probability="0.000069" from="e210" to="dst10" departSpeed="13" maxSpeed="20"/>
<flow id="21to11" begin="0" end="2000" probability="0.012014" from="e210" to="dst11" departSpeed="13" maxSpeed="20"/>
<flow id="21to14" begin="0" end="2000" probability="0.008333" from="e210" to="dst14" departSpeed="13" maxSpeed="20"/>
<flow id="21to17" begin="0" end="2000" probability="0.017153" from="e210" to="dst17" departSpeed="13" maxSpeed="20"/>
<flow id="21to19" begin="0" end="2000" probability="0.006389" from="e210" to="dst19" departSpeed="13" maxSpeed="20"/>
<flow id="21to20" begin="0" end="2000" probability="0.005347" from="e210" to="dst20" departSpeed="13" maxSpeed="20"/>
<flow id="21to22" begin="0" end="2000" probability="0.009444" from="e210" to="dst22" departSpeed="13" maxSpeed="20"/>
<flow id="22to1" begin="0" end="2000" probability="0.000972" from="e220" to="dst1" departSpeed="5" maxSpeed="20"/>
<flow id="22to2" begin="0" end="2000" probability="0.000139" from="e220" to="dst2" departSpeed="5" maxSpeed="20"/>
<flow id="22to4" begin="0" end="2000" probability="0.000069" from="e220" to="dst4" departSpeed="5" maxSpeed="20"/>
<flow id="22to5" begin="0" end="2000" probability="0.000069" from="e220" to="dst5" departSpeed="5" maxSpeed="20"/>
<flow id="22to11" begin="0" end="2000" probability="0.000694" from="e220" to="dst11" departSpeed="5" maxSpeed="20"/>
<flow id="22to14" begin="0" end="2000" probability="0.000556" from="e220" to="dst14" departSpeed="5" maxSpeed="20"/>
<flow id="22to17" begin="0" end="2000" probability="0.003056" from="e220" to="dst17" departSpeed="5" maxSpeed="20"/>
<flow id="22to20" begin="0" end="2000" probability="0.011250" from="e220" to="dst20" departSpeed="5" maxSpeed="20"/>
</routes>
