<routes>
<flow id="1to2" begin="0" end="2000" probability="0.049306" from="e10" to="dst2" departSpeed="10" maxSpeed="20"/>
<flow id="1to4" begin="0" end="2000" probability="0.014583" from="e10" to="dst4" departSpeed="10" maxSpeed="20"/>
<flow id="1to7" begin="0" end="2000" probability="0.259028" from="e10" to="dst7" departSpeed="10" maxSpeed="20"/>
<flow id="1to8" begin="0" end="2000" probability="0.009722" from="e10" to="dst8" departSpeed="10" maxSpeed="20"/>
<flow id="1to10" begin="0" end="2000" probability="0.116667" from="e10" to="dst10" departSpeed="10" maxSpeed="20"/>
<flow id="1to13" begin="0" end="2000" probability="0.000694" from="e10" to="dst13" departSpeed="10" maxSpeed="20"/>
<flow id="1to16" begin="0" end="2000" probability="0.111111" from="e10" to="dst16" departSpeed="10" maxSpeed="20"/>
<flow id="1to17" begin="0" end="2000" probability="0.001389" from="e10" to="dst17" departSpeed="10" maxSpeed="20"/>
<flow id="1to19" begin="0" end="2000" probability="0.000694" from="e10" to="dst19" departSpeed="10" maxSpeed="20"/>
<flow id="1to20" begin="0" end="2000" probability="0.000694" from="e10" to="dst20" departSpeed="10" maxSpeed="20"/>
<flow id="1to21" begin="0" end="2000" probability="0.043750" from="e10" to="dst21" departSpeed="10" maxSpeed="20"/>
<flow id="1to22" begin="0" end="2000" probability="0.009028" from="e10" to="dst22" departSpeed="10" maxSpeed="20"/>
<flow id="4to1" begin="0" end="2000" probability="0.020833" from="e40" to="dst1" departSpeed="7" maxSpeed="20"/>
<flow id="4to2" begin="0" end="2000" probability="0.019444" from="e40" to="dst2" departSpeed="7" maxSpeed="20"/>
<flow id="4to7" begin="0" end="2000" probability="0.038889" from="e40" to="dst7" departSpeed="7" maxSpeed="20"/>
<flow id="4to8" begin="0" end="2000" probability="0.005556" from="e40" to="dst8" departSpeed="7" maxSpeed="20"/>
<flow id="4to10" begin="0" end="2000" probability="0.015972" from="e40" to="dst10" departSpeed="7" maxSpeed="20"/>
<flow id="4to13" begin="0" end="2000" probability="0.000694" from="e40" to="dst13" departSpeed="7" maxSpeed="20"/>
<flow id="4to16" begin="0" end="2000" probability="0.019444" from="e40" to="dst16" departSpeed="7" maxSpeed="20"/>
<flow id="4to17" begin="0" end="2000" probability="0.001389" from="e40" to="dst17" departSpeed="7" maxSpeed="20"/>
<flow id="4to20" begin="0" end="2000" probability="0.001389" from="e40" to="dst20" departSpeed="7" maxSpeed="20"/>
<flow id="4to21" begin="0" end="2000" probability="0.007639" from="e40" to="dst21" departSpeed="7" maxSpeed="20"/>
<flow id="4to22" begin="0" end="2000" probability="0.000694" from="e40" to="dst22" departSpeed="7" maxSpeed="20"/>
<flow id="5to1" begin="0" end="2000" probability="0.057639" from="e50" to="dst1" departSpeed="8" maxSpeed="20"/>
<flow id="5to4" begin="0" end="2000" probability="0.006250" from="e50" to="dst4" departSpeed="8" maxSpeed="20"/>
<flow id="7to8" begin="0" end="2000" probability="0.004167" from="e70" to="dst8" departSpeed="6" maxSpeed="20"/>
<flow id="7to10" begin="0" end="2000" probability="0.030556" from="e70" to="dst10" departSpeed="6" maxSpeed="20"/>
<flow id="7to16" begin="0" end="2000" probability="0.034028" from="e70" to="dst16" departSpeed="6" maxSpeed="20"/>
<flow id="7to17" begin="0" end="2000" probability="0.002083" from="e70" to="dst17" departSpeed="6" maxSpeed="20"/>
<flow id="7to19" begin="0" end="2000" probability="0.000694" from="e70" to="dst19" departSpeed="6" maxSpeed="20"/>
<flow id="7to21" begin="0" end="2000" probability="0.013194" from="e70" to="dst21" departSpeed="6" maxSpeed="20"/>
<flow id="7to22" begin="0" end="2000" probability="0.002778" from="e70" to="dst22" departSpeed="6" maxSpeed="20"/>
<flow id="8to1" begin="0" end="2000" probability="0.058333" from="e80" to="dst1" departSpeed="6" maxSpeed="20"/>
<flow id="8to2" begin="0" end="2000" probability="0.017361" from="e80" to="dst2" departSpeed="6" maxSpeed="20"/>
<flow id="8to4" begin="0" end="2000" probability="0.006944" from="e80" to="dst4" departSpeed="6" maxSpeed="20"/>
<flow id="8to10" begin="0" end="2000" probability="0.015278" from="e80" to="dst10" departSpeed="6" maxSpeed="20"/>
<flow id="8to16" begin="0" end="2000" probability="0.009028" from="e80" to="dst16" departSpeed="6" maxSpeed="20"/>
<flow id="8to17" begin="0" end="2000" probability="0.000694" from="e80" to="dst17" departSpeed="6" maxSpeed="20"/>
<flow id="8to21" begin="0" end="2000" probability="0.003472" from="e80" to="dst21" departSpeed="6" maxSpeed="20"/>
<flow id="8to22" begin="0" end="2000" probability="0.001389" from="e80" to="dst22" departSpeed="6" maxSpeed="20"/>
<flow id="10to1" begin="0" end="2000" probability="0.003472" from="e100" to="dst1" departSpeed="5" maxSpeed="20"/>
<flow id="10to2" begin="0" end="2000" probability="0.001389" from="e100" to="dst2" departSpeed="5" maxSpeed="20"/>
<flow id="10to5" begin="0" end="2000" probability="0.002778" from="e100" to="dst5" departSpeed="5" maxSpeed="20"/>
<flow id="10to8" begin="0" end="2000" probability="0.007639" from="e100" to="dst8" departSpeed="5" maxSpeed="20"/>
<flow id="10to13" begin="0" end="2000" probability="0.001389" from="e100" to="dst13" departSpeed="5" maxSpeed="20"/>
<flow id="10to16" begin="0" end="2000" probability="0.086806" from="e100" to="dst16" departSpeed="5" maxSpeed="20"/>
<flow id="10to17" begin="0" end="2000" probability="0.003472" from="e100" to="dst17" departSpeed="5" maxSpeed="20"/>
<flow id="10to20" begin="0" end="2000" probability="0.001389" from="e100" to="dst20" departSpeed="5" maxSpeed="20"/>
<flow id="10to21" begin="0" end="2000" probability="0.038194" from="e100" to="dst21" departSpeed="5" maxSpeed="20"/>
<flow id="10to22" begin="0" end="2000" probability="0.007639" from="e100" to="dst22" departSpeed="5" maxSpeed="20"/>
<flow id="11to1" begin="0" end="2000" probability="0.238194" from="e110" to="dst1" departSpeed="7" maxSpeed="20"/>
<flow id="11to2" begin="0" end="2000" probability="0.018056" from="e110" to="dst2" departSpeed="7" maxSpeed="20"/>
<flow id="11to4" begin="0" end="2000" probability="0.006250" from="e110" to="dst4" departSpeed="7" maxSpeed="20"/>
<flow id="11to5" begin="0" end="2000" probability="0.054861" from="e110" to="dst5" departSpeed="7" maxSpeed="20"/>
<flow id="11to10" begin="0" end="2000" probability="0.008333" from="e110" to="dst10" departSpeed="7" maxSpeed="20"/>
<flow id="11to13" begin="0" end="2000" probability="0.125000" from="e110" to="dst13" departSpeed="7" maxSpeed="20"/>
<flow id="13to11" begin="0" end="2000" probability="0.224306" from="e130" to="dst11" departSpeed="9" maxSpeed="20"/>
<flow id="13to16" begin="0" end="2000" probability="0.104861" from="e130" to="dst16" departSpeed="9" maxSpeed="20"/>
<flow id="13to17" begin="0" end="2000" probability="0.010417" from="e130" to="dst17" departSpeed="9" maxSpeed="20"/>
<flow id="13to19" begin="0" end="2000" probability="0.001389" from="e130" to="dst19" departSpeed="9" maxSpeed="20"/>
<flow id="13to20" begin="0" end="2000" probability="0.000694" from="e130" to="dst20" departSpeed="9" maxSpeed="20"/>
<flow id="13to21" begin="0" end="2000" probability="0.053472" from="e130" to="dst21" departSpeed="9" maxSpeed="20"/>
<flow id="13to22" begin="0" end="2000" probability="0.006250" from="e130" to="dst22" departSpeed="9" maxSpeed="20"/>
<flow id="14to1" begin="0" end="2000" probability="0.086806" from="e140" to="dst1" departSpeed="8" maxSpeed="20"/>
<flow id="14to2" begin="0" end="2000" probability="0.011806" from="e140" to="dst2" departSpeed="8" maxSpeed="20"/>
<flow id="14to4" begin="0" end="2000" probability="0.002083" from="e140" to="dst4" departSpeed="8" maxSpeed="20"/>
<flow id="14to5" begin="0" end="2000" probability="0.012500" from="e140" to="dst5" departSpeed="8" maxSpeed="20"/>
<flow id="14to10" begin="0" end="2000" probability="0.007639" from="e140" to="dst10" departSpeed="8" maxSpeed="20"/>
<flow id="14to11" begin="0" end="2000" probability="0.022917" from="e140" to="dst11" departSpeed="8" maxSpeed="20"/>
<flow id="14to16" begin="0" end="2000" probability="0.075694" from="e140" to="dst16" departSpeed="8" maxSpeed="20"/>
<flow id="16to17" begin="0" end="2000" probability="0.027083" from="e160" to="dst17" departSpeed="6" maxSpeed="20"/>
<flow id="16to20" begin="0" end="2000" probability="0.006944" from="e160" to="dst20" departSpeed="6" maxSpeed="20"/>
<flow id="16to21" begin="0" end="2000" probability="0.165972" from="e160" to="dst21" departSpeed="6" maxSpeed="20"/>
<flow id="16to22" begin="0" end="2000" probability="0.036111" from="e160" to="dst22" departSpeed="6" maxSpeed="20"/>
<flow id="17to1" begin="0" end="2000" probability="0.040278" from="e170" to="dst1" departSpeed="10" maxSpeed="20"/>
<flow id="17to2" begin="0" end="2000" probability="0.002778" from="e170" to="dst2" departSpeed="10" maxSpeed="20"/>
<flow id="17to4" begin="0" end="2000" probability="0.000694" from="e170" to="dst4" departSpeed="10" maxSpeed="20"/>
<flow id="17to5" begin="0" end="2000" probability="0.004861" from="e170" to="dst5" departSpeed="10" maxSpeed="20"/>
<flow id="17to10" begin="0" end="2000" probability="0.001389" from="e170" to="dst10" departSpeed="10" maxSpeed="20"/>
<flow id="17to11" begin="0" end="2000" probability="0.046528" from="e170" to="dst11" departSpeed="10" maxSpeed="20"/>
<flow id="17to14" begin="0" end="2000" probability="0.006944" from="e170" to="dst14" departSpeed="10" maxSpeed="20"/>
<flow id="17to19" begin="0" end="2000" probability="0.336111" from="e170" to="dst19" departSpeed="10" maxSpeed="20"/>
<flow id="17to20" begin="0" end="2000" probability="0.000694" from="e170" to="dst20" departSpeed="10" maxSpeed="20"/>
<flow id="17to21" begin="0" end="2000" probability="0.127778" from="e170" to="dst21" departSpeed="10" maxSpeed="20"/>
<flow id="17to22" begin="0" end="2000" probability="0.044444" from="e170" to="dst22" departSpeed="10" maxSpeed="20"/>
<flow id="19to1" begin="0" end="2000" probability="0.047222" from="e190" to="dst1" departSpeed="7" maxSpeed="20"/>
<flow id="19to2" begin="0" end="2000" probability="0.004167" from="e190" to="dst2" departSpeed="7" maxSpeed="20"/>
<flow id="19to10" begin="0" end="2000" probability="0.002083" from="e190" to="dst10" departSpeed="7" maxSpeed="20"/>
<flow id="19to11" begin="0" end="2000" probability="0.054861" from="e190" to="dst11" departSpeed="7" maxSpeed="20"/>
<flow id="19to14" begin="0" end="2000" probability="0.044444" from="e190" to="dst14" departSpeed="7" maxSpeed="20"/>
<flow id="19to17" begin="0" end="2000" probability="0.354861" from="e190" to="dst17" departSpeed="7" maxSpeed="20"/>
<flow id="19to20" begin="0" end="2000" probability="0.063889" from="e190" to="dst20" departSpeed="7" maxSpeed="20"/>
<flow id="19to21" begin="0" end="2000" probability="0.292361" from="e190" to="dst21" departSpeed="7" maxSpeed="20"/>
<flow id="20to1" begin="0" end="2000" probability="0.022917" from="e200" to="dst1" departSpeed="6" maxSpeed="20"/>
<flow id="20to2" begin="0" end="2000" probability="0.002083" from="e200" to="dst2" departSpeed="6" maxSpeed="20"/>
<flow id="20to4" begin="0" end="2000" probability="0.000694" from="e200" to="dst4" departSpeed="6" maxSpeed="20"/>
<flow id="20to5" begin="0" end="2000" probability="0.001389" from="e200" to="dst5" departSpeed="6" maxSpeed="20"/>
<flow id="20to11" begin="0" end="2000" probability="0.031944" from="e200" to="dst11" departSpeed="6" maxSpeed="20"/>
<flow id="20to14" begin="0" end="2000" probability="0.039583" from="e200" to="dst14" departSpeed="6" maxSpeed="20"/>
<flow id="20to19" begin="0" end="2000" probability="0.063889" from="e200" to="dst19" departSpeed="6" maxSpeed="20"/>
<flow id="20to21" begin="0" end="2000" probability="0.002778" from="e200" to="dst21" departSpeed="6" maxSpeed="20"/>
<flow id="20to22" begin="0" end="2000" probability="0.200000" from="e200" to="dst22" departSpeed="6" maxSpeed="20"/>
<flow id="21to1" begin="0" end="2000" probability="0.077778" from="e210" to="dst1" departSpeed="13" maxSpeed="20"/>
<flow id="21to2" begin="0" end="2000" probability="0.003472" from="e210" to="dst2" departSpeed="13" maxSpeed="20"/>
<flow id="21to4" begin="0" end="2000" probability="0.000694" from="e210" to="dst4" departSpeed="13" maxSpeed="20"/>
<flow id="21to5" begin="0" end="2000" probability="0.003472" from="e210" to="dst5" departSpeed="13" maxSpeed="20"/>
<flow id="21to10" begin="0" end="2000" probability="0.000694" from="e210" to="dst10" departSpeed="13" maxSpeed="20"/>
<flow id="21to11" begin="0" end="2000" probability="0.120139" from="e210" to="dst11" departSpeed="13" maxSpeed="20"/>
<flow id="21to14" begin="0" end="2000" probability="0.083333" from="e210" to="dst14" departSpeed="13" maxSpeed="20"/>
<flow id="21to17" begin="0" end="2000" probability="0.171528" from="e210" to="dst17" departSpeed="13" maxSpeed="20"/>
<flow id="21to19" begin="0" end="2000" probability="0.063889" from="e210" to="dst19" departSpeed="13" maxSpeed="20"/>
<flow id="21to20" begin="0" end="2000" probability="0.053472" from="e210" to="dst20" departSpeed="13" maxSpeed="20"/>
<flow id="21to22" begin="0" end="2000" probability="0.094444" from="e210" to="dst22" departSpeed="13" maxSpeed="20"/>
<flow id="22to1" begin="0" end="2000" probability="0.009722" from="e220" to="dst1" departSpeed="5" maxSpeed="20"/>
<flow id="22to2" begin="0" end="2000" probability="0.001389" from="e220" to="dst2" departSpeed="5" maxSpeed="20"/>
<flow id="22to4" begin="0" end="2000" probability="0.000694" from="e220" to="dst4" departSpeed="5" maxSpeed="20"/>
<flow id="22to5" begin="0" end="2000" probability="0.000694" from="e220" to="dst5" departSpeed="5" maxSpeed="20"/>
<flow id="22to11" begin="0" end="2000" probability="0.006944" from="e220" to="dst11" departSpeed="5" maxSpeed="20"/>
<flow id="22to14" begin="0" end="2000" probability="0.005556" from="e220" to="dst14" departSpeed="5" maxSpeed="20"/>
<flow id="22to17" begin="0" end="2000" probability="0.030556" from="e220" to="dst17" departSpeed="5" maxSpeed="20"/>
<flow id="22to20" begin="0" end="2000" probability="0.112500" from="e220" to="dst20" departSpeed="5" maxSpeed="20"/>
</routes>
