<?xml version='1.0' encoding='utf-8'?>
<net xmlns:xsi="http://www.w3.org/2001/XMLSchema-instance" version="0.27" xsi:noNamespaceSchemaLocation="http://sumo.dlr.de/xsd/net_file.xsd">

    <location convBoundary="0.00,0.00,1214.84,5167.00" netOffset="-9.00,-57.00" origBoundary="9.00,57.00,955.00,5224.00" projParameter="!" />

    <edge function="internal" id=":tl1_0">
        <lane id=":tl1_0_0" index="0" length="7.42" shape="702.22,4671.77 701.72,4670.29 700.55,4669.61 698.72,4669.73 696.23,4670.67" speed="13.90" />
    </edge>
    <edge function="internal" id=":tl1_1">
        <lane id=":tl1_1_0" index="0" length="15.25" shape="702.22,4671.77 701.42,4668.48 700.02,4665.54 698.49,4662.12 697.30,4657.41" speed="13.90" />
    </edge>
    <edge function="internal" id=":tl1_2">
        <lane id=":tl1_2_0" index="0" length="19.13" shape="702.22,4671.77 702.57,4666.77 704.65,4663.18 708.45,4660.99 713.97,4660.21" speed="13.90" />
    </edge>
    <edge function="internal" id=":tl1_3">
        <lane id=":tl1_3_0" index="0" length="13.51" shape="714.02,4663.51 710.03,4664.05 707.28,4665.56 705.78,4668.04 705.51,4671.48" speed="13.90" />
    </edge>
    <edge function="internal" id=":tl1_4">
        <lane id=":tl1_4_0" index="0" length="19.83" shape="714.02,4663.51 710.16,4663.60 705.87,4664.05 700.86,4665.27 694.82,4667.68" speed="13.90" />
    </edge>
    <edge function="internal" id=":tl1_5">
        <lane id=":tl1_5_0" index="0" length="11.21" shape="714.02,4663.51 708.51,4663.16 704.44,4661.94 703.30,4661.05" speed="13.90" />
    </edge>
    <edge function="internal" id=":tl1_12">
        <lane id=":tl1_12_0" index="0" length="5.11" shape="703.30,4661.05 701.79,4659.86 700.56,4656.92" speed="13.90" />
    </edge>
    <edge function="internal" id=":tl1_6">
        <lane id=":tl1_6_0" index="0" length="6.55" shape="710.35,4655.44 710.85,4657.54 711.62,4659.04 712.66,4659.92 713.97,4660.21" speed="13.90" />
    </edge>
    <edge function="internal" id=":tl1_7">
        <lane id=":tl1_7_0" index="0" length="15.72" shape="707.09,4655.93 707.27,4660.92 706.57,4664.73 705.73,4668.03 705.51,4671.48" speed="13.90" />
    </edge>
    <edge function="internal" id=":tl1_8">
        <lane id=":tl1_8_0" index="0" length="15.44" shape="703.83,4656.42 703.63,4659.58 702.07,4662.51 699.13,4665.21 694.82,4667.68" speed="13.90" />
    </edge>
    <edge function="internal" id=":tl1_9">
        <lane id=":tl1_9_0" index="0" length="4.67" shape="692.01,4661.71 693.05,4661.04 693.73,4660.18 694.06,4659.14 694.04,4657.90" speed="13.90" />
    </edge>
    <edge function="internal" id=":tl1_10">
        <lane id=":tl1_10_0" index="0" length="22.32" shape="692.01,4661.71 698.55,4659.69 704.51,4659.38 709.70,4659.87 713.97,4660.21" speed="13.90" />
    </edge>
    <edge function="internal" id=":tl1_11">
        <lane id=":tl1_11_0" index="0" length="7.76" shape="693.41,4664.70 698.30,4663.17 700.90,4663.61" speed="13.90" />
    </edge>
    <edge function="internal" id=":tl1_13">
        <lane id=":tl1_13_0" index="0" length="9.78" shape="700.90,4663.61 701.95,4663.79 704.35,4666.56 705.51,4671.48" speed="13.90" />
    </edge>
    <edge function="internal" id=":tl2_0">
        <lane id=":tl2_0_0" index="0" length="5.14" shape="598.72,4026.04 598.31,4024.67 597.56,4023.81 596.47,4023.47 595.05,4023.64" speed="13.90" />
    </edge>
    <edge function="internal" id=":tl2_1">
        <lane id=":tl2_1_0" index="0" length="16.98" shape="598.72,4026.04 598.49,4021.06 599.12,4017.61 599.76,4014.16 599.55,4009.18" speed="13.90" />
        <lane id=":tl2_1_1" index="1" length="16.98" shape="601.98,4025.55 601.75,4020.57 602.39,4017.12 603.03,4013.68 602.81,4008.70" speed="13.90" />
    </edge>
    <edge function="internal" id=":tl2_3">
        <lane id=":tl2_3_0" index="0" length="2.79" shape="605.24,4025.06 605.47,4022.27" speed="13.90" />
    </edge>
    <edge function="internal" id=":tl2_13">
        <lane id=":tl2_13_0" index="0" length="13.90" shape="605.47,4022.27 605.51,4021.67 607.41,4018.76 610.95,4016.32 616.11,4014.35" speed="13.90" />
    </edge>
    <edge function="internal" id=":tl2_4">
        <lane id=":tl2_4_0" index="0" length="6.96" shape="617.03,4017.52 615.86,4018.20 615.14,4019.44 614.86,4021.23 615.03,4023.58" speed="13.90" />
    </edge>
    <edge function="internal" id=":tl2_5">
        <lane id=":tl2_5_0" index="0" length="22.81" shape="617.03,4017.52 595.05,4023.64" speed="13.90" />
    </edge>
    <edge function="internal" id=":tl2_6">
        <lane id=":tl2_6_0" index="0" length="10.35" shape="617.03,4017.52 611.49,4018.31 607.28,4017.11 607.03,4016.83" speed="13.90" />
    </edge>
    <edge function="internal" id=":tl2_14">
        <lane id=":tl2_14_0" index="0" length="9.38" shape="607.03,4016.83 604.39,4013.90 602.81,4008.70" speed="13.90" />
    </edge>
    <edge function="internal" id=":tl2_7">
        <lane id=":tl2_7_0" index="0" length="11.01" shape="609.34,4007.73 610.22,4011.23 611.64,4013.50 613.60,4014.54 616.11,4014.35" speed="13.90" />
    </edge>
    <edge function="internal" id=":tl2_8">
        <lane id=":tl2_8_0" index="0" length="16.52" shape="609.34,4007.73 611.77,4024.07" speed="13.90" />
    </edge>
    <edge function="internal" id=":tl2_9">
        <lane id=":tl2_9_0" index="0" length="10.82" shape="606.08,4008.22 606.05,4013.68 604.21,4018.07 603.77,4018.47" speed="13.90" />
    </edge>
    <edge function="internal" id=":tl2_15">
        <lane id=":tl2_15_0" index="0" length="10.29" shape="603.77,4018.47 600.54,4021.39 595.05,4023.64" speed="13.90" />
    </edge>
    <edge function="internal" id=":tl2_10">
        <lane id=":tl2_10_0" index="0" length="9.18" shape="592.49,4014.07 595.74,4013.02 598.00,4011.85 599.27,4010.57 599.55,4009.18" speed="13.90" />
    </edge>
    <edge function="internal" id=":tl2_11">
        <lane id=":tl2_11_0" index="0" length="22.99" shape="593.34,4017.26 600.90,4015.75 607.08,4015.22 612.08,4014.97 616.11,4014.35" speed="13.90" />
    </edge>
    <edge function="internal" id=":tl2_12">
        <lane id=":tl2_12_0" index="0" length="16.97" shape="594.20,4020.45 600.03,4019.39 604.35,4019.72 607.18,4021.44 608.51,4024.56" speed="13.90" />
    </edge>
    <edge function="internal" id=":tl3_0">
        <lane id=":tl3_0_0" index="0" length="5.41" shape="541.83,3617.68 541.42,3616.14 540.69,3615.09 539.65,3614.52 538.30,3614.43" speed="13.90" />
    </edge>
    <edge function="internal" id=":tl3_1">
        <lane id=":tl3_1_0" index="0" length="10.61" shape="541.83,3617.68 541.90,3614.58 542.71,3612.43 543.51,3610.33 543.52,3607.36" speed="13.90" />
    </edge>
    <edge function="internal" id=":tl3_2">
        <lane id=":tl3_2_0" index="0" length="13.36" shape="545.10,3617.19 545.28,3614.22 546.82,3611.94 549.71,3610.36 553.96,3609.48" speed="13.90" />
    </edge>
    <edge function="internal" id=":tl3_3">
        <lane id=":tl3_3_0" index="0" length="5.05" shape="554.31,3612.76 552.96,3613.11 552.07,3613.80 551.62,3614.84 551.63,3616.23" speed="13.90" />
    </edge>
    <edge function="internal" id=":tl3_4">
        <lane id=":tl3_4_0" index="0" length="16.10" shape="554.31,3612.76 538.30,3614.43" speed="13.90" />
    </edge>
    <edge function="internal" id=":tl3_5">
        <lane id=":tl3_5_0" index="0" length="7.78" shape="554.31,3612.76 550.01,3612.82 546.78,3611.94 546.68,3611.85" speed="13.90" />
    </edge>
    <edge function="internal" id=":tl3_12">
        <lane id=":tl3_12_0" index="0" length="5.66" shape="546.68,3611.85 544.61,3610.12 543.52,3607.36" speed="13.90" />
    </edge>
    <edge function="internal" id=":tl3_6">
        <lane id=":tl3_6_0" index="0" length="8.42" shape="546.77,3606.80 547.44,3608.24 548.86,3609.17 551.03,3609.58 553.96,3609.48" speed="13.90" />
    </edge>
    <edge function="internal" id=":tl3_7">
        <lane id=":tl3_7_0" index="0" length="10.04" shape="546.77,3606.80 548.36,3616.71" speed="13.90" />
    </edge>
    <edge function="internal" id=":tl3_8">
        <lane id=":tl3_8_0" index="0" length="13.09" shape="546.77,3606.80 546.68,3609.78 545.23,3612.04 542.44,3613.59 538.30,3614.43" speed="13.90" />
    </edge>
    <edge function="internal" id=":tl3_9">
        <lane id=":tl3_9_0" index="0" length="7.55" shape="537.97,3611.15 540.60,3610.68 542.41,3609.90 543.38,3608.79 543.52,3607.36" speed="13.90" />
    </edge>
    <edge function="internal" id=":tl3_10">
        <lane id=":tl3_10_0" index="0" length="16.08" shape="537.97,3611.15 553.96,3609.48" speed="13.90" />
    </edge>
    <edge function="internal" id=":tl3_11">
        <lane id=":tl3_11_0" index="0" length="7.45" shape="537.97,3611.15 542.15,3611.14 545.28,3612.07" speed="13.90" />
    </edge>
    <edge function="internal" id=":tl3_13">
        <lane id=":tl3_13_0" index="0" length="5.75" shape="545.28,3612.07 547.35,3613.92 548.36,3616.71" speed="13.90" />
    </edge>
    <edge function="internal" id=":tl4_0">
        <lane id=":tl4_0_0" index="0" length="5.60" shape="477.21,3226.11 476.75,3224.63 475.96,3223.59 474.83,3222.99 473.38,3222.84" speed="13.90" />
    </edge>
    <edge function="internal" id=":tl4_1">
        <lane id=":tl4_1_0" index="0" length="10.24" shape="477.21,3226.11 476.72,3223.15 476.45,3221.05 476.31,3218.94 476.23,3215.94" speed="13.90" />
    </edge>
    <edge function="internal" id=":tl4_2">
        <lane id=":tl4_2_0" index="0" length="10.72" shape="477.21,3226.11 477.14,3223.20 478.06,3221.00 479.96,3219.51 482.85,3218.72" speed="13.90" />
    </edge>
    <edge function="internal" id=":tl4_3">
        <lane id=":tl4_3_0" index="0" length="5.21" shape="483.27,3222.00 481.84,3222.38 480.89,3223.10 480.44,3224.15 480.47,3225.55" speed="13.90" />
    </edge>
    <edge function="internal" id=":tl4_4">
        <lane id=":tl4_4_0" index="0" length="9.93" shape="483.27,3222.00 473.38,3222.84" speed="13.90" />
    </edge>
    <edge function="internal" id=":tl4_5">
        <lane id=":tl4_5_0" index="0" length="10.85" shape="483.27,3222.00 480.25,3221.94 478.07,3220.92 476.73,3218.91 476.23,3215.94" speed="13.90" />
    </edge>
    <edge function="internal" id=":tl4_6">
        <lane id=":tl4_6_0" index="0" length="5.13" shape="479.53,3215.86 479.77,3217.27 480.40,3218.21 481.43,3218.70 482.85,3218.72" speed="13.90" />
    </edge>
    <edge function="internal" id=":tl4_7">
        <lane id=":tl4_7_0" index="0" length="9.75" shape="479.53,3215.86 479.61,3218.75 479.73,3220.73 479.98,3222.70 480.47,3225.55" speed="13.90" />
    </edge>
    <edge function="internal" id=":tl4_8">
        <lane id=":tl4_8_0" index="0" length="10.57" shape="479.53,3215.86 479.20,3218.82 478.07,3220.97 476.13,3222.31 473.38,3222.84" speed="13.90" />
    </edge>
    <edge function="internal" id=":tl4_9">
        <lane id=":tl4_9_0" index="0" length="5.31" shape="473.24,3219.54 474.58,3219.27 475.52,3218.58 476.07,3217.47 476.23,3215.94" speed="13.90" />
    </edge>
    <edge function="internal" id=":tl4_10">
        <lane id=":tl4_10_0" index="0" length="9.65" shape="473.24,3219.54 482.85,3218.72" speed="13.90" />
    </edge>
    <edge function="internal" id=":tl4_11">
        <lane id=":tl4_11_0" index="0" length="10.43" shape="473.24,3219.54 475.99,3219.82 478.12,3220.92 479.61,3222.83 480.47,3225.55" speed="13.90" />
    </edge>
    <edge function="internal" id=":tl5_0">
        <lane id=":tl5_0_0" index="0" length="6.26" shape="457.64,2420.62 457.36,2418.69 456.63,2417.76 455.46,2417.83 453.83,2418.91" speed="13.90" />
    </edge>
    <edge function="internal" id=":tl5_1">
        <lane id=":tl5_1_0" index="0" length="32.90" shape="457.64,2420.62 456.92,2387.72" speed="13.90" />
    </edge>
    <edge function="internal" id=":tl5_2">
        <lane id=":tl5_2_0" index="0" length="32.00" shape="457.64,2420.62 458.36,2414.98 460.42,2406.80 463.39,2397.91 466.87,2390.15" speed="13.90" />
    </edge>
    <edge function="internal" id=":tl5_3">
        <lane id=":tl5_3_0" index="0" length="29.78" shape="472.66,2393.31 468.79,2400.57 464.96,2408.34 462.05,2415.41 460.94,2420.54" speed="13.90" />
    </edge>
    <edge function="internal" id=":tl5_4">
        <lane id=":tl5_4_0" index="0" length="31.93" shape="472.66,2393.31 468.77,2400.10 464.30,2406.97 459.31,2413.41 453.83,2418.91" speed="13.90" />
    </edge>
    <edge function="internal" id=":tl5_5">
        <lane id=":tl5_5_0" index="0" length="16.63" shape="469.76,2391.73 464.36,2399.91 460.41,2401.97 459.18,2399.95" speed="13.90" />
    </edge>
    <edge function="internal" id=":tl5_12">
        <lane id=":tl5_12_0" index="0" length="12.63" shape="459.18,2399.95 457.93,2397.91 456.92,2387.72" speed="13.90" />
    </edge>
    <edge function="internal" id=":tl5_6">
        <lane id=":tl5_6_0" index="0" length="8.42" shape="460.22,2387.65 460.51,2390.52 461.24,2391.63 462.39,2390.98 463.97,2388.57" speed="13.90" />
    </edge>
    <edge function="internal" id=":tl5_7">
        <lane id=":tl5_7_0" index="0" length="32.90" shape="460.22,2387.65 460.94,2420.54" speed="13.90" />
    </edge>
    <edge function="internal" id=":tl5_8">
        <lane id=":tl5_8_0" index="0" length="30.87" shape="460.22,2387.65 459.85,2397.36 458.31,2405.39 455.59,2411.73 451.69,2416.40" speed="13.90" />
    </edge>
    <edge function="internal" id=":tl5_9">
        <lane id=":tl5_9_0" index="0" length="26.36" shape="447.41,2411.38 451.69,2406.75 454.70,2401.27 456.45,2394.93 456.92,2387.72" speed="13.90" />
    </edge>
    <edge function="internal" id=":tl5_10">
        <lane id=":tl5_10_0" index="0" length="28.36" shape="447.41,2411.38 452.53,2406.31 456.75,2400.83 460.43,2394.92 463.97,2388.57" speed="13.90" />
    </edge>
    <edge function="internal" id=":tl5_11">
        <lane id=":tl5_11_0" index="0" length="10.40" shape="449.55,2413.89 454.39,2410.78 457.91,2410.85 458.54,2411.79" speed="13.90" />
    </edge>
    <edge function="internal" id=":tl5_13">
        <lane id=":tl5_13_0" index="0" length="9.28" shape="458.54,2411.79 460.09,2414.11 460.94,2420.54" speed="13.90" />
    </edge>
    <edge function="internal" id=":tl6_0">
        <lane id=":tl6_0_0" index="0" length="11.81" shape="435.71,1391.74 435.28,1387.95 434.20,1385.16 432.45,1383.39 430.05,1382.63" speed="13.90" />
    </edge>
    <edge function="internal" id=":tl6_1">
        <lane id=":tl6_1_0" index="0" length="31.80" shape="435.71,1391.74 435.15,1359.94" speed="13.90" />
    </edge>
    <edge function="internal" id=":tl6_2">
        <lane id=":tl6_2_0" index="0" length="24.04" shape="435.71,1391.74 436.36,1383.57 438.75,1379.21 442.88,1378.66 448.75,1381.91" speed="13.90" />
    </edge>
    <edge function="internal" id=":tl6_3">
        <lane id=":tl6_3_0" index="0" length="6.23" shape="442.74,1389.77 441.07,1388.79 439.89,1388.78 439.20,1389.74 439.01,1391.67" speed="13.90" />
    </edge>
    <edge function="internal" id=":tl6_4">
        <lane id=":tl6_4_0" index="0" length="15.86" shape="442.74,1389.77 439.33,1386.89 436.94,1384.80 434.27,1383.41 430.05,1382.63" speed="13.90" />
        <lane id=":tl6_4_1" index="1" length="15.86" shape="444.74,1387.15 440.90,1383.94 438.17,1381.67 435.13,1380.19 430.36,1379.34" speed="13.90" />
    </edge>
    <edge function="internal" id=":tl6_6">
        <lane id=":tl6_6_0" index="0" length="28.15" shape="446.75,1384.53 441.75,1379.73 438.15,1374.03 435.95,1367.43 435.15,1359.94" speed="13.90" />
    </edge>
    <edge function="internal" id=":tl6_7">
        <lane id=":tl6_7_0" index="0" length="22.52" shape="438.45,1359.90 439.37,1363.15 442.07,1367.03 446.53,1371.54 452.76,1376.67" speed="13.90" />
    </edge>
    <edge function="internal" id=":tl6_8">
        <lane id=":tl6_8_0" index="0" length="31.77" shape="438.45,1359.90 439.01,1391.67" speed="13.90" />
    </edge>
    <edge function="internal" id=":tl6_9">
        <lane id=":tl6_9_0" index="0" length="20.09" shape="438.45,1359.90 438.05,1367.25 436.62,1372.40 434.16,1375.33 430.67,1376.05" speed="13.90" />
    </edge>
    <edge function="internal" id=":tl6_10">
        <lane id=":tl6_10_0" index="0" length="5.13" shape="431.92,1362.91 433.35,1362.85 434.36,1362.33 434.96,1361.36 435.15,1359.94" speed="13.90" />
    </edge>
    <edge function="internal" id=":tl6_11">
        <lane id=":tl6_11_0" index="0" length="23.89" shape="431.92,1362.91 439.03,1364.50 443.28,1367.39 447.07,1371.48 452.76,1376.67" speed="13.90" />
        <lane id=":tl6_11_1" index="1" length="23.89" shape="431.61,1366.20 438.18,1367.72 442.06,1370.51 445.50,1374.43 450.75,1379.29" speed="13.90" />
        <lane id=":tl6_11_2" index="2" length="23.89" shape="431.30,1369.48 437.33,1370.94 440.83,1373.64 443.93,1377.36 448.75,1381.91" speed="13.90" />
    </edge>
    <edge function="internal" id=":tl6_14">
        <lane id=":tl6_14_0" index="0" length="22.09" shape="430.99,1372.77 434.35,1374.22 436.81,1377.86 438.36,1383.67 439.01,1391.67" speed="13.90" />
    </edge>
    <edge function="internal" id=":tl7_0">
        <lane id=":tl7_0_0" index="0" length="5.89" shape="424.42,555.99 424.18,554.43 423.50,553.26 422.39,552.48 420.84,552.09" speed="13.90" />
    </edge>
    <edge function="internal" id=":tl7_1">
        <lane id=":tl7_1_0" index="0" length="10.06" shape="424.42,555.99 424.52,545.94" speed="13.90" />
    </edge>
    <edge function="internal" id=":tl7_2">
        <lane id=":tl7_2_0" index="0" length="10.66" shape="424.42,555.99 424.80,553.07 426.03,551.03 428.11,549.88 431.05,549.61" speed="13.90" />
    </edge>
    <edge function="internal" id=":tl7_3">
        <lane id=":tl7_3_0" index="0" length="5.08" shape="430.88,552.91 429.48,553.04 428.49,553.58 427.90,554.56 427.72,555.95" speed="13.90" />
    </edge>
    <edge function="internal" id=":tl7_4">
        <lane id=":tl7_4_0" index="0" length="10.07" shape="430.88,552.91 420.84,552.09" speed="13.90" />
    </edge>
    <edge function="internal" id=":tl7_5">
        <lane id=":tl7_5_0" index="0" length="5.57" shape="430.88,552.91 428.01,552.34 426.00,550.99 425.89,550.80" speed="13.90" />
    </edge>
    <edge function="internal" id=":tl7_12">
        <lane id=":tl7_12_0" index="0" length="5.15" shape="425.89,550.80 424.83,548.86 424.52,545.94" speed="13.90" />
    </edge>
    <edge function="internal" id=":tl7_6">
        <lane id=":tl7_6_0" index="0" length="5.47" shape="427.82,546.05 427.98,547.54 428.57,548.63 429.59,549.32 431.05,549.61" speed="13.90" />
    </edge>
    <edge function="internal" id=":tl7_7">
        <lane id=":tl7_7_0" index="0" length="9.90" shape="427.82,546.05 427.72,555.95" speed="13.90" />
    </edge>
    <edge function="internal" id=":tl7_8">
        <lane id=":tl7_8_0" index="0" length="10.72" shape="427.82,546.05 427.29,548.97 425.96,550.95 423.81,551.99 420.84,552.09" speed="13.90" />
    </edge>
    <edge function="internal" id=":tl7_9">
        <lane id=":tl7_9_0" index="0" length="5.09" shape="421.20,548.81 422.61,548.76 423.63,548.27 424.27,547.33 424.52,545.94" speed="13.90" />
    </edge>
    <edge function="internal" id=":tl7_10">
        <lane id=":tl7_10_0" index="0" length="9.88" shape="421.20,548.81 431.05,549.61" speed="13.90" />
    </edge>
    <edge function="internal" id=":tl7_11">
        <lane id=":tl7_11_0" index="0" length="5.38" shape="421.20,548.81 424.02,549.52 426.04,550.95" speed="13.90" />
    </edge>
    <edge function="internal" id=":tl7_13">
        <lane id=":tl7_13_0" index="0" length="5.36" shape="426.04,550.95 427.28,553.09 427.72,555.95" speed="13.90" />
    </edge>
    <edge function="internal" id=":v0_0">
        <lane id=":v0_0_0" index="0" length="2.67" shape="749.53,5160.63 749.60,5161.42 749.64,5161.96 749.65,5162.51 749.65,5163.30" speed="13.90" />
    </edge>
    <edge function="internal" id=":v0_1">
        <lane id=":v0_1_0" index="0" length="4.82" shape="749.53,5160.63 748.82,5161.94 748.04,5162.42 747.18,5162.09 746.25,5160.93" speed="13.90" />
    </edge>
    <edge function="internal" id=":v10_0">
        <lane id=":v10_0_0" index="0" length="5.78" shape="322.47,4846.84 321.04,4846.98 320.08,4846.18 319.08,4845.15 317.50,4844.65" speed="13.90" />
    </edge>
    <edge function="internal" id=":v10_1">
        <lane id=":v10_1_0" index="0" length="4.82" shape="321.06,4843.85 319.59,4843.63 318.86,4843.06 318.89,4842.14 319.65,4840.87" speed="13.90" />
    </edge>
    <edge function="internal" id=":v11_0">
        <lane id=":v11_0_0" index="0" length="3.00" shape="1199.73,4653.97 1202.74,4653.95" speed="13.90" />
    </edge>
    <edge function="internal" id=":v11_1">
        <lane id=":v11_1_0" index="0" length="4.82" shape="1199.73,4653.97 1200.98,4654.78 1201.40,4655.60 1201.00,4656.43 1199.78,4657.27" speed="13.90" />
    </edge>
    <edge function="internal" id=":v20_0">
        <lane id=":v20_0_0" index="0" length="3.42" shape="252.88,4115.21 251.89,4115.46 251.21,4115.59 250.51,4115.64 249.50,4115.65" speed="13.90" />
    </edge>
    <edge function="internal" id=":v20_1">
        <lane id=":v20_1_0" index="0" length="4.82" shape="252.88,4115.21 251.47,4114.73 250.86,4114.04 251.04,4113.14 252.02,4112.02" speed="13.90" />
    </edge>
    <edge function="internal" id=":v21_0">
        <lane id=":v21_0_0" index="0" length="4.91" shape="1075.63,3880.90 1079.81,3883.48" speed="13.90" />
    </edge>
    <edge function="internal" id=":v21_1">
        <lane id=":v21_1_0" index="0" length="4.82" shape="1075.63,3880.90 1077.05,3881.35 1077.68,3882.02 1077.51,3882.93 1076.55,3884.07" speed="13.90" />
    </edge>
    <edge function="internal" id=":v30_0">
        <lane id=":v30_0_0" index="0" length="1.38" shape="76.89,3660.95 76.48,3660.98 76.20,3660.99 75.92,3660.98 75.51,3660.94" speed="13.90" />
    </edge>
    <edge function="internal" id=":v30_1">
        <lane id=":v30_1_0" index="0" length="4.82" shape="76.89,3660.95 75.58,3660.25 75.08,3659.47 75.41,3658.61 76.56,3657.66" speed="13.90" />
    </edge>
    <edge function="internal" id=":v31_0">
        <lane id=":v31_0_0" index="0" length="2.51" shape="1067.10,3554.14 1067.84,3554.06 1068.35,3554.02 1068.86,3554.01 1069.60,3554.01" speed="13.90" />
    </edge>
    <edge function="internal" id=":v31_1">
        <lane id=":v31_1_0" index="0" length="4.82" shape="1067.10,3554.14 1068.42,3554.83 1068.91,3555.60 1068.59,3556.47 1067.45,3557.42" speed="13.90" />
    </edge>
    <edge function="internal" id=":v40_0">
        <lane id=":v40_0_0" index="0" length="2.95" shape="11.49,3241.59 8.54,3241.65" speed="13.90" />
    </edge>
    <edge function="internal" id=":v40_1">
        <lane id=":v40_1_0" index="0" length="4.82" shape="11.49,3241.59 10.22,3240.82 9.78,3240.01 10.15,3239.17 11.36,3238.29" speed="13.90" />
    </edge>
    <edge function="internal" id=":v41_0">
        <lane id=":v41_0_0" index="0" length="2.31" shape="934.80,3161.49 935.48,3161.41 935.95,3161.37 936.42,3161.35 937.10,3161.35" speed="13.90" />
    </edge>
    <edge function="internal" id=":v41_1">
        <lane id=":v41_1_0" index="0" length="4.82" shape="934.80,3161.49 936.13,3162.15 936.64,3162.92 936.34,3163.79 935.22,3164.76" speed="13.90" />
    </edge>
    <edge function="internal" id=":v50_0">
        <lane id=":v50_0_0" index="0" length="5.33" shape="170.41,2660.48 169.15,2660.91 168.06,2660.35 166.91,2659.69 165.47,2659.84" speed="13.90" />
    </edge>
    <edge function="internal" id=":v50_1">
        <lane id=":v50_1_0" index="0" length="4.82" shape="168.27,2657.97 166.79,2658.15 165.95,2657.79 165.72,2656.89 166.13,2655.46" speed="13.90" />
    </edge>
    <edge function="internal" id=":v51_0">
        <lane id=":v51_0_0" index="0" length="13.41" shape="686.68,1980.75 686.92,1981.89 689.05,1982.70 693.07,1983.19 698.99,1983.35" speed="13.90" />
    </edge>
    <edge function="internal" id=":v51_1">
        <lane id=":v51_1_0" index="0" length="4.82" shape="689.57,1982.34 690.89,1981.65 691.81,1981.68 692.34,1982.44 692.47,1983.92" speed="13.90" />
    </edge>
    <edge function="internal" id=":v60_0">
        <lane id=":v60_0_0" index="0" length="6.92" shape="101.56,1351.34 99.80,1344.65" speed="13.90" />
    </edge>
    <edge function="internal" id=":v60_1">
        <lane id=":v60_1_0" index="0" length="4.82" shape="102.19,1344.77 101.04,1343.83 100.70,1342.97 101.19,1342.19 102.50,1341.49" speed="13.90" />
    </edge>
    <edge function="internal" id=":v61_0">
        <lane id=":v61_0_0" index="0" length="6.26" shape="814.82,1653.54 812.50,1659.35" speed="13.90" />
    </edge>
    <edge function="internal" id=":v61_1">
        <lane id=":v61_1_0" index="0" length="4.82" shape="810.81,1658.78 811.29,1660.19 811.12,1661.09 810.29,1661.50 808.81,1661.40" speed="13.90" />
    </edge>
    <edge function="internal" id=":v70_0">
        <lane id=":v70_0_0" index="0" length="2.30" shape="30.10,508.78 29.42,508.71 28.95,508.67 28.49,508.65 27.80,508.65" speed="13.90" />
    </edge>
    <edge function="internal" id=":v70_1">
        <lane id=":v70_1_0" index="0" length="4.82" shape="30.10,508.78 28.96,507.83 28.64,506.96 29.14,506.19 30.46,505.50" speed="13.90" />
    </edge>
    <edge function="internal" id=":v71_0">
        <lane id=":v71_0_0" index="0" length="2.82" shape="881.61,573.27 884.43,573.35" speed="13.90" />
    </edge>
    <edge function="internal" id=":v71_1">
        <lane id=":v71_1_0" index="0" length="4.82" shape="881.61,573.27 882.81,574.16 883.18,575.01 882.72,575.81 881.44,576.57" speed="13.90" />
    </edge>
    <edge function="internal" id=":v8_0">
        <lane id=":v8_0_0" index="0" length="2.92" shape="442.30,11.44 442.35,8.53" speed="13.90" />
    </edge>
    <edge function="internal" id=":v8_1">
        <lane id=":v8_1_0" index="0" length="4.82" shape="442.30,11.44 443.17,10.23 444.00,9.85 444.82,10.29 445.60,11.55" speed="13.90" />
    </edge>

    <edge from="v0" id="dst1" priority="-1" to="v0n">
        <lane id="dst1_0" index="0" length="3.70" shape="749.65,5163.30 749.65,5167.00" speed="13.90" />
    </edge>
    <edge from="v30" id="dst10" priority="-1" to="v3l">
        <lane id="dst10_0" index="0" length="17.44" shape="75.51,3660.94 58.14,3659.40" speed="13.90" />
    </edge>
    <edge from="v41" id="dst11" priority="-1" to="v4r">
        <lane id="dst11_0" index="0" length="8.90" shape="937.10,3161.35 946.00,3161.35" speed="13.90" />
    </edge>
    <edge from="v40" id="dst13" priority="-1" to="v4l">
        <lane id="dst13_0" index="0" length="8.54" shape="8.54,3241.65 0.00,3241.65" speed="13.90" />
    </edge>
    <edge from="v51" id="dst14" priority="-1" to="v5r">
        <lane id="dst14_0" index="0" length="1.01" shape="698.99,1983.35 700.00,1983.35" speed="13.90" />
    </edge>
    <edge from="v50" id="dst16" priority="-1" to="v5l">
        <lane id="dst16_0" index="0" length="11.34" shape="165.47,2659.84 155.36,2664.97" speed="13.90" />
    </edge>
    <edge from="v61" id="dst17" priority="-1" to="v6r">
        <lane id="dst17_0" index="0" length="8.50" shape="812.50,1659.35 821.00,1659.35" speed="13.90" />
    </edge>
    <edge from="v60" id="dst19" priority="-1" to="v6l">
        <lane id="dst19_0" index="0" length="8.80" shape="99.80,1344.65 91.00,1344.65" speed="13.90" />
    </edge>
    <edge from="v11" id="dst2" priority="-1" to="v1r">
        <lane id="dst2_0" index="0" length="12.10" shape="1202.74,4653.95 1214.84,4653.95" speed="13.90" />
    </edge>
    <edge from="v71" id="dst20" priority="-1" to="v7r">
        <lane id="dst20_0" index="0" length="8.57" shape="884.43,573.35 893.00,573.35" speed="13.90" />
    </edge>
    <edge from="v8" id="dst21" priority="-1" to="v8s">
        <lane id="dst21_0" index="0" length="8.53" shape="442.35,8.53 442.35,0.00" speed="13.90" />
    </edge>
    <edge from="v70" id="dst22" priority="-1" to="v7l">
        <lane id="dst22_0" index="0" length="8.80" shape="27.80,508.65 19.00,508.65" speed="13.90" />
    </edge>
    <edge from="v10" id="dst4" priority="-1" to="v1l">
        <lane id="dst4_0" index="0" length="8.50" shape="317.50,4844.65 309.00,4844.65" speed="13.90" />
    </edge>
    <edge from="v21" id="dst5" priority="-1" to="v2r">
        <lane id="dst5_0" index="0" length="0.94" shape="1079.81,3883.48 1080.75,3883.40" speed="13.90" />
    </edge>
    <edge from="v20" id="dst7" priority="-1" to="v2l">
        <lane id="dst7_0" index="0" length="8.50" shape="249.50,4115.65 241.00,4115.65" speed="13.90" />
    </edge>
    <edge from="v31" id="dst8" priority="-1" to="v3r">
        <lane id="dst8_0" index="0" length="14.38" shape="1069.60,3554.01 1083.98,3554.01" speed="13.90" />
    </edge>
    <edge from="v0" id="e10" priority="-1" to="tl1">
        <lane id="e10_0" index="0" length="491.13" shape="746.25,5160.93 702.22,4671.77" speed="13.90" />
    </edge>
    <edge from="v30" id="e100" priority="-1" to="tl3">
        <lane id="e100_0" index="0" length="463.74" shape="76.56,3657.66 537.97,3611.15" speed="13.90" />
    </edge>
    <edge from="tl3" id="e101" priority="-1" to="v30">
        <lane id="e101_0" index="0" length="463.74" shape="538.30,3614.43 76.89,3660.95" speed="13.90" />
    </edge>
    <edge from="tl1" id="e11" priority="-1" to="v0">
        <lane id="e11_0" index="0" length="491.13" shape="705.51,4671.48 749.53,5160.63" speed="13.90" />
    </edge>
    <edge from="v41" id="e110" priority="-1" to="tl4">
        <lane id="e110_0" index="0" length="455.56" shape="935.22,3164.76 483.27,3222.00" speed="13.90" />
    </edge>
    <edge from="tl4" id="e111" priority="-1" to="v41">
        <lane id="e111_0" index="0" length="455.56" shape="482.85,3218.72 934.80,3161.49" speed="13.90" />
    </edge>
    <edge from="tl4" id="e120" priority="-1" to="tl5">
        <lane id="e120_0" index="0" length="795.54" shape="476.23,3215.94 457.64,2420.62" speed="13.90" />
    </edge>
    <edge from="tl5" id="e121" priority="-1" to="tl4">
        <lane id="e121_0" index="0" length="795.54" shape="460.94,2420.54 479.53,3215.86" speed="13.90" />
    </edge>
    <edge from="v40" id="e130" priority="-1" to="tl4">